59
Lattice="13.759703671364877 0.0 0.0 0.0 11.286699708568284 0.0 0.0 0.0 15.0" Properties=species:S:1:pos:R:3 pbc="T T T"
C        0.97062604       4.38109699       3.33412424
C       13.50531151       2.46421864       2.51780160
C        3.14784917       4.47712771       2.83565223
C       11.34794919       6.49801463       2.76047869
C        2.05991035       2.78372809       1.84166291
C       12.48811833       4.33798791       3.27179188
C        7.82742361       4.43749354       3.47605942
C        6.57274904       2.52728727       2.70269147
C       10.04940631       4.49240647       2.98640181
C        4.27942171       6.56129291       2.69665433
C        8.90003150       2.82627410       2.00659719
C        5.54173439       4.44192883       3.31597613
C       11.25654615      10.04391634       0.84712791
C       10.08855017       8.19056889       1.86726857
C       13.47526633      10.11261473       1.19991119
C        0.94500395       0.86889251       1.41357810
C       12.45639585       8.38134322       2.20794417
C        9.00880900      10.08282956       1.15374050
C        4.37907381      10.09857436       0.80661988
C        3.12573940       8.14074957       1.51261891
C        6.53571020      10.20278547       1.42343648
C        7.78702351       0.91141654       1.65371493
C        5.31296778       8.58213102       2.45447607
C        2.13399698      10.03956408       0.79072928
N       13.59246153       4.95294762       3.70704839
N       12.38260428       3.04463029       2.93246509
N        2.16850960       4.89005383       3.63602220
N        2.03489900       1.62005463       1.20259607
N       -0.18800586       1.21851452       2.04797504
N        3.15316573       3.55908628       1.87912353
N        0.92682634       3.22781419       2.53333667
N       11.32078414       5.14134585       3.15223161
N        6.67259425       5.05569081       3.77193474
N        5.45554562       3.12252802       3.09375452
N        9.04795716       4.91244688       3.81298323
N        8.87344088       1.65238909       1.40621823
N        6.64410983       1.27780747       2.26220636
N        9.99042410       3.59717499       2.01820789
N        7.77018810       3.28841640       2.70125453
N        4.38778243       5.20170074       3.04937029
N       10.08417700      10.63753349       0.59484242
N        8.92883511       8.83946089       1.68818951
N       12.43639110      10.54956807       0.47848890
N       12.48028240       7.20176634       2.81323684
N       10.13366964       6.96386963       2.39015905
N       13.52877545       9.16619552       2.12957282
N       11.27263998       8.84883213       1.59592694
N        7.81608746      10.84363017       1.27801104
N        3.26101113      10.66349884       0.39865875
N        2.03922251       8.71029148       1.02659761
N        5.61305537      10.55942778       0.54694968
N        5.23522066       7.43096188       3.14088591
N        3.23367525       6.87302036       1.92759423
N        6.40208397       9.37075474       2.48670711
N        4.28107205       8.95419609       1.63378650
N        0.96183934      10.80748016       0.97719763
Ag       7.94437917       8.76385980       3.62909115
Ag       9.02392350       6.85921703       4.46857345
Ag       6.70107181       6.95453126       4.40940883
